**********************
* Autodesk EAGLE - SPICE Model File
* Author:
* Date: 
**********************
.SUBCKT NUCLEO D0 D1 D2 D3 D4 D5 D6 D9 D10 D11 D12 D13 A0 A1 A2 A3 A4 A5 A6 A7 VIN GND 5V 3V3 AREF NRST
.ENDS NUCLEO