* SML-D12U8W LED model
* Model Generated by ROHM
* All Rights Reserved
* Commercial Use or
* Resale Restricted
* Date: 2014/04/23
.MODEL SMLD12U8W D
+ IS=6.1217E-24
+ N=1.4314
+ RS=5.1194
+ IKF=6.1885E-3
+ EG=2.2
+ CJO=6.1000E-12
+ M=.3333
+ VJ=.75
+ BV=9
+ TRS1=-1.531m	
+ TRS2=8.022u	